dss/import/capas-pablo/Formato-interfaz/cooperativa-linegeometry-loadshape-csv-curvasdecarga-normamps/Transformer.dss
New Transformer.idseta_86 phases=3 wdg=1 bus=39.1.2.3 kv=13.2 kVA=160.0 wdg=2 bus=x_86.1.2.3 kv=0.38 kVA=160.0 %imag=0.5 %loadloss=1.5 %noloadloss=0.25 XHL=2.0 conns=[delta, wye, ] ppm_antifloat=0
New Transformer.idseta_87 phases=3 wdg=1 bus=105.1.2.3 kv=13.2 kVA=160.0 wdg=2 bus=x_87.1.2.3 kv=0.38 kVA=160.0 %imag=0.5 %loadloss=1.5 %noloadloss=0.25 XHL=2.0 conns=[delta, wye, ] ppm_antifloat=0
New Transformer.idseta_200 phases=3 wdg=1 bus=42.1.2.3 kv=13.2 kVA=200.0 wdg=2 bus=x_200.1.2.3 kv=0.38 kVA=200.0 %imag=0.5 %loadloss=1.5 %noloadloss=0.25 XHL=2.0 conns=[delta, wye, ] ppm_antifloat=0
New Transformer.idseta_17 phases=3 wdg=1 bus=81.1.2.3 kv=13.2 kVA=400.0 wdg=2 bus=x_17.1.2.3 kv=0.38 kVA=400.0 %imag=0.5 %loadloss=1.5 %noloadloss=0.25 XHL=2.0 conns=[delta, wye, ] ppm_antifloat=0
New Transformer.idseta_50 phases=3 wdg=1 bus=57.1.2.3 kv=13.2 kVA=400.0 wdg=2 bus=x_50.1.2.3 kv=0.38 kVA=400.0 %imag=0.5 %loadloss=1.5 %noloadloss=0.25 XHL=2.0 conns=[delta, wye, ] ppm_antifloat=0
New Transformer.idseta_51 phases=3 wdg=1 bus=58.1.2.3 kv=13.2 kVA=315.0 wdg=2 bus=x_51.1.2.3 kv=0.38 kVA=315.0 %imag=0.5 %loadloss=1.5 %noloadloss=0.25 XHL=2.0 conns=[delta, wye, ] ppm_antifloat=0
New Transformer.idseta_83 phases=3 wdg=1 bus=13.1.2.3 kv=13.2 kVA=315.0 wdg=2 bus=x_83.1.2.3 kv=0.38 kVA=315.0 %imag=0.5 %loadloss=1.5 %noloadloss=0.25 XHL=2.0 conns=[delta, wye, ] ppm_antifloat=0
New Transformer.idseta_378 phases=3 wdg=1 bus=68.1.2.3 kv=13.2 kVA=160.0 wdg=2 bus=x_378.1.2.3 kv=0.38 kVA=160.0 %imag=0.5 %loadloss=1.5 %noloadloss=0.25 XHL=2.0 conns=[delta, wye, ] ppm_antifloat=0
New Transformer.idseta_49 phases=3 wdg=1 bus=62.1.2.3 kv=13.2 kVA=315.0 wdg=2 bus=x_49.1.2.3 kv=0.38 kVA=315.0 %imag=0.5 %loadloss=1.5 %noloadloss=0.25 XHL=2.0 conns=[delta, wye, ] ppm_antifloat=0
New Transformer.idseta_52 phases=3 wdg=1 bus=54.1.2.3 kv=13.2 kVA=315.0 wdg=2 bus=x_52.1.2.3 kv=0.38 kVA=315.0 %imag=0.5 %loadloss=1.5 %noloadloss=0.25 XHL=2.0 conns=[delta, wye, ] ppm_antifloat=0
New Transformer.idseta_53 phases=3 wdg=1 bus=71.1.2.3 kv=13.2 kVA=200.0 wdg=2 bus=x_53.1.2.3 kv=0.38 kVA=200.0 %imag=0.5 %loadloss=1.5 %noloadloss=0.25 XHL=2.0 conns=[delta, wye, ] ppm_antifloat=0
New Transformer.idseta_54 phases=3 wdg=1 bus=87.1.2.3 kv=13.2 kVA=315.0 wdg=2 bus=x_54.1.2.3 kv=0.38 kVA=315.0 %imag=0.5 %loadloss=1.5 %noloadloss=0.25 XHL=2.0 conns=[delta, wye, ] ppm_antifloat=0
New Transformer.idseta_55 phases=3 wdg=1 bus=65.1.2.3 kv=13.2 kVA=315.0 wdg=2 bus=x_55.1.2.3 kv=0.38 kVA=315.0 %imag=0.5 %loadloss=1.5 %noloadloss=0.25 XHL=2.0 conns=[delta, wye, ] ppm_antifloat=0
New Transformer.idseta_56 phases=3 wdg=1 bus=47.1.2.3 kv=13.2 kVA=315.0 wdg=2 bus=x_56.1.2.3 kv=0.38 kVA=315.0 %imag=0.5 %loadloss=1.5 %noloadloss=0.25 XHL=2.0 conns=[delta, wye, ] ppm_antifloat=0
New Transformer.idseta_61 phases=3 wdg=1 bus=25.1.2.3 kv=13.2 kVA=250.0 wdg=2 bus=x_61.1.2.3 kv=0.38 kVA=250.0 %imag=0.5 %loadloss=1.5 %noloadloss=0.25 XHL=2.0 conns=[delta, wye, ] ppm_antifloat=0
New Transformer.idseta_77 phases=3 wdg=1 bus=4.1.2.3 kv=13.2 kVA=200.0 wdg=2 bus=x_77.1.2.3 kv=0.38 kVA=200.0 %imag=0.5 %loadloss=1.5 %noloadloss=0.25 XHL=2.0 conns=[delta, wye, ] ppm_antifloat=0
New Transformer.idseta_78 phases=3 wdg=1 bus=75.1.2.3 kv=13.2 kVA=200.0 wdg=2 bus=x_78.1.2.3 kv=0.38 kVA=200.0 %imag=0.5 %loadloss=1.5 %noloadloss=0.25 XHL=2.0 conns=[delta, wye, ] ppm_antifloat=0
New Transformer.idseta_58 phases=3 wdg=1 bus=7.1.2.3 kv=13.2 kVA=160.0 wdg=2 bus=x_58.1.2.3 kv=0.38 kVA=160.0 %imag=0.5 %loadloss=1.5 %noloadloss=0.25 XHL=2.0 conns=[delta, wye, ] ppm_antifloat=0
New Transformer.idseta_88 phases=3 wdg=1 bus=93.1.2.3 kv=13.2 kVA=75.0 wdg=2 bus=x_88.1.2.3 kv=0.38 kVA=75.0 %imag=0.5 %loadloss=1.5 %noloadloss=0.25 XHL=2.0 conns=[delta, wye, ] ppm_antifloat=0
New Transformer.idseta_97 phases=3 wdg=1 bus=83.1.2.3 kv=13.2 kVA=160.0 wdg=2 bus=x_97.1.2.3 kv=0.38 kVA=160.0 %imag=0.5 %loadloss=1.5 %noloadloss=0.25 XHL=2.0 conns=[delta, wye, ] ppm_antifloat=0
New Transformer.idseta_113 phases=3 wdg=1 bus=99.1.2.3 kv=13.2 kVA=315.0 wdg=2 bus=x_113.1.2.3 kv=0.38 kVA=315.0 %imag=0.5 %loadloss=1.5 %noloadloss=0.25 XHL=2.0 conns=[delta, wye, ] ppm_antifloat=0
New Transformer.idseta_6005 phases=3 wdg=1 bus=44.1.2.3 kv=13.2 kVA=400.0 wdg=2 bus=x_6005.1.2.3 kv=0.38 kVA=400.0 %imag=0.5 %loadloss=1.5 %noloadloss=0.25 XHL=2.0 conns=[delta, wye, ] ppm_antifloat=0
New Transformer.idseta_18 phases=3 wdg=1 bus=28.1.2.3 kv=13.2 kVA=200.0 wdg=2 bus=x_18.1.2.3 kv=0.38 kVA=200.0 %imag=0.5 %loadloss=1.5 %noloadloss=0.25 XHL=2.0 conns=[delta, wye, ] ppm_antifloat=0
New Transformer.idseta_62 phases=3 wdg=1 bus=38.1.2.3 kv=13.2 kVA=315.0 wdg=2 bus=x_62.1.2.3 kv=0.38 kVA=315.0 %imag=0.5 %loadloss=1.5 %noloadloss=0.25 XHL=2.0 conns=[delta, wye, ] ppm_antifloat=0
New Transformer.idseta_63 phases=3 wdg=1 bus=41.1.2.3 kv=13.2 kVA=160.0 wdg=2 bus=x_63.1.2.3 kv=0.38 kVA=160.0 %imag=0.5 %loadloss=1.5 %noloadloss=0.25 XHL=2.0 conns=[delta, wye, ] ppm_antifloat=0
New Transformer.idseta_65 phases=3 wdg=1 bus=10.1.2.3 kv=13.2 kVA=200.0 wdg=2 bus=x_65.1.2.3 kv=0.38 kVA=200.0 %imag=0.5 %loadloss=1.5 %noloadloss=0.25 XHL=2.0 conns=[delta, wye, ] ppm_antifloat=0
New Transformer.idseta_68 phases=3 wdg=1 bus=52.1.2.3 kv=13.2 kVA=160.0 wdg=2 bus=x_68.1.2.3 kv=0.38 kVA=160.0 %imag=0.5 %loadloss=1.5 %noloadloss=0.25 XHL=2.0 conns=[delta, wye, ] ppm_antifloat=0
New Transformer.idseta_73 phases=3 wdg=1 bus=2.1.2.3 kv=13.2 kVA=100.0 wdg=2 bus=x_73.1.2.3 kv=0.38 kVA=100.0 %imag=0.5 %loadloss=1.5 %noloadloss=0.25 XHL=2.0 conns=[delta, wye, ] ppm_antifloat=0
New Transformer.idseta_114 phases=3 wdg=1 bus=101.1.2.3 kv=13.2 kVA=315.0 wdg=2 bus=x_114.1.2.3 kv=0.38 kVA=315.0 %imag=0.5 %loadloss=1.5 %noloadloss=0.25 XHL=2.0 conns=[delta, wye, ] ppm_antifloat=0
New Transformer.idseta_90 phases=3 wdg=1 bus=76.1.2.3 kv=13.2 kVA=160.0 wdg=2 bus=x_90.1.2.3 kv=0.38 kVA=160.0 %imag=0.5 %loadloss=1.5 %noloadloss=0.25 XHL=2.0 conns=[delta, wye, ] ppm_antifloat=0
